LAMMPS (2 Apr 2025)
Loaded 1 plugins from C:\Users\Abhiraj\AppData\Local\LAMMPS 64-bit 2Apr2025 with Python\plugins
# ---------- Final GaN Nanobelt Simulation Script ----------

units     metal
atom_style charge
boundary   s p s
read_data  GaN_nanobelt.data
Reading data file ...
  orthogonal box = (-0.0210474 -0.003314106 -0.006613986) to (210.49505 33.144374 66.146474)
  reading atoms ...
  14121 atoms
  reading velocities ...
  14121 velocities

pair_style sw
pair_coeff * * GaN.sw Ga N

neighbor 2.0 bin
neigh_modify delay 0 every 1 check yes

minimize 1e-6 1e-8 10000 100000
Step          Temp          E_pair         E_mol          TotEng         Press          Volume
0   0              7.5942614e+11  0              7.5942614e+11  3.5161681e+12  461624.35
Loop time of 0.04717 on 1 procs for 21 steps with 14121 atoms

Minimization stats:
  Stopping criterion = energy tolerance
  Energy initial, next-to-last, final =
  Force two-norm initial, final = 2.6407615e+13 9.1200943e-05
  Force max component initial, final = 7.604235e+11 2.6261872e-06
  Final line search alpha, max atom move = 1 2.6261872e-06
  Iterations, force evaluations = 21 74

timestep 0.001

# --- Equilibrate ---
fix nvt1 all nvt temp 300.0 300.0 0.1
run 5000
Step          Temp          E_pair         E_mol          TotEng         Press          Volume
21   0             -603            0             -603           -0.0020564355   461624.35
Loop time of 3.30727 on 1 procs for 5000 steps with 14121 atoms

unfix nvt1

# --- Apply electric field ---
variable efield equal 0.0  # set per run
fix field all efield 0.0 +8.0 0

# --- Re-equilibrate with field ---
fix nvt2 all nvt temp 300.0 300.0 0.1
run 5000
Step          Temp          E_pair         E_mol          TotEng         Press          Volume
5021   2.2678199e-06 -602.99998      0             -602.99998      0.21670721     461624.35
Loop time of 5.263 on 1 procs for 5000 steps with 14121 atoms

unfix nvt2
unfix field

# --- Apply bending force ---
region mid block INF INF INF INF 10 12 units box
group middle region mid
0 atoms in group middle
fix bend middle addforce 0.0 0.1 0.0
run 2000
For more information see https://docs.lammps.org/err0028 (src/verlet.cpp:60)
Step          Temp          E_pair         E_mol          TotEng         Press          Volume
10021   12903.412     -603            0              22947.705      54492.195      461624.35
Loop time of 0.985792 on 1 procs for 2000 steps with 14121 atoms

unfix bend

# --- Free vibration ---
fix nve all nve

# --- Stress computation ---
compute stress all stress/atom NULL
compute pzz all reduce sum c_stress[3]
variable area equal lx*ly
variable stress_z equal c_pzz/v_area  # eV/Å³ → convert in Python to GPa

# --- Thermo output ---
thermo 100
thermo_style custom step temp v_stress_z pe ke etotal

# --- Dump Vibration & Bond Data ---
variable dumpdir string dump_vibrate_0
shell mkdir dump_vibrate_0

dump 1 all custom 500 dump.vibrate.* id type x y z

run 5000
Step          Temp        v_stress_z       PotEng         KinEng         TotEng
12021   12903.412      0             -603            23550.705      22947.705
Averages over the last 26 of 52 rows, steps 14600 to 17021:
Temp v_stress_z PotEng KinEng TotEng
12903.4 0 -603 23550.7 22947.7
Loop time of 3.87269 on 1 procs for 5000 steps with 14121 atoms
