LAMMPS (2 Apr 2025)
Loaded 1 plugins from C:\Users\Abhiraj\AppData\Local\LAMMPS 64-bit 2Apr2025 with Python\plugins
# ---------- Final GaN Nanobelt Simulation Script ----------

units     metal
atom_style charge
boundary   s s s
read_data  GaN_nanobelt.data
Reading data file ...
  orthogonal box = (-0.0210474 -0.003314106 -0.006613986) to (210.49505 33.144374 66.146474)
  reading atoms ...
  14121 atoms
  reading velocities ...
  14121 velocities

pair_style sw
pair_coeff * * GaN.sw Ga N

neighbor 2.0 bin
neigh_modify delay 0 every 1 check yes

minimize 1e-6 1e-8 10000 100000
Step          Temp          E_pair         E_mol          TotEng         Press          Volume
0   0              0              0              0              0              461624.37
Loop time of 0.000983 on 1 procs for 1 steps with 14121 atoms

Minimization stats:
  Stopping criterion = search direction is not downhill
  Energy initial, next-to-last, final =
  Force two-norm initial, final = 0 0
  Force max component initial, final = 0 0
  Final line search alpha, max atom move = 0 0
  Iterations, force evaluations = 1 0

timestep 0.001

# --- Equilibrate ---
fix nvt1 all nvt temp 300.0 300.0 0.1
run 5000
Step          Temp          E_pair         E_mol          TotEng         Press          Volume
1   0              0              0              0              0              461624.37
Loop time of 2.85817 on 1 procs for 5000 steps with 14121 atoms

unfix nvt1

# --- Apply electric field ---
variable efield equal -2.0  # set per run
fix field all efield 0.0 0.0 -2

# --- Re-equilibrate with field ---
fix nvt2 all nvt temp 300.0 300.0 0.1
run 5000
Step          Temp          E_pair         E_mol          TotEng         Press          Volume
5001   0              0              0              0              0              461624.37
Loop time of 7.34376 on 1 procs for 5000 steps with 14121 atoms

unfix nvt2
unfix field

# --- Apply bending force ---
region mid block INF INF INF INF 10 12 units box
group middle region mid
0 atoms in group middle
fix bend middle addforce 0.0 0.1 0.0
run 2000
For more information see https://docs.lammps.org/err0028 (src/verlet.cpp:60)
Step          Temp          E_pair         E_mol          TotEng         Press          Volume
10001   2749.4909     -5171.9897      0             -153.74738      3311.3793      4131428.9
Loop time of 1.63933 on 1 procs for 2000 steps with 14121 atoms

unfix bend

# --- Free vibration ---
fix nve all nve

# --- Stress computation ---
compute stress all stress/atom NULL
compute pzz all reduce sum c_stress[3]
variable area equal lx*ly
variable stress_z equal c_pzz/v_area  # eV/Å³ → convert in Python to GPa

# --- Thermo output ---
thermo 100
thermo_style custom step temp v_stress_z pe ke etotal

# --- Dump Vibration & Bond Data ---
variable dumpdir string dump_vibrate_-2
shell mkdir dump_vibrate_-2

dump 1 all custom 500 dump_vibrate_-2/dump.vibrate.* id type x y z

run 10000
Step          Temp        v_stress_z       PotEng         KinEng         TotEng
12001   2749.4909     -5881551.3     -5171.9897      5018.2423     -153.74738
Averages over the last 51 of 102 rows, steps 17100 to 22001:
Temp v_stress_z PotEng KinEng TotEng
2925.68 -2.41806e+06 -5495.36 5339.82 -155.543
Loop time of 13.1138 on 1 procs for 10000 steps with 14121 atoms
